tests/data/ieee_118_bus_v10_10000.m
function mpc = ieee_118_bus_v10_10000
mpc.version = '2';
mpc.baseMVA = 100.00;

%% bus data
mpc.bus = [
	1	2	51	27	0	0	1	0.955	10.9828	138	1	1.1	0.9
	2	1	20	9	0	0	1	0.97139	11.5228	138	1	1.1	0.9
	3	1	39	10	0	0	1	0.96769	11.8662	138	1	1.1	0.9
	4	2	39	12	0	0	1	0.998	15.5836	138	1	1.1	0.9
	5	1	0	0	0	-40	1	1.00198	16.0287	138	1	1.1	0.9
	6	2	52	22	0	0	1	0.99	13.3018	138	1	1.1	0.9
	7	1	19	2	0	0	1	0.98933	12.8575	138	1	1.1	0.9
	8	2	28	0	0	0	1	1.015	21.0492	345	1	1.1	0.9
	9	1	0	0	0	0	1	1.04292	28.3033	345	1	1.1	0.9
	10	2	0	0	0	0	1	1.05	35.8842	345	1	1.1	0.9
	11	1	87	31	0	0	1	0.98509	13.0161	138	1	1.1	0.9
	12	2	86.5	23.5	0	0	1	0.99	12.4993	138	1	1.1	0.9
	15	2	125.5	43	0	0	1	0.97	11.4894	138	1	1.1	0.9
	17	1	23.5	8	0	0	1	0.99513	14.0056	138	1	1.1	0.9
	18	2	60	34	0	0	1	0.973	11.792	138	1	1.1	0.9
	19	2	45	25	0	0	1	0.96343	11.3074	138	1	1.1	0.9
	20	1	18	3	0	0	1	0.95806	12.1872	138	1	1.1	0.9
	21	1	14	8	0	0	1	0.95862	13.7751	138	1	1.1	0.9
	22	1	10	5	0	0	1	0.96965	16.3296	138	1	1.1	0.9
	23	1	7	3	0	0	1	0.99966	21.2503	138	1	1.1	0.9
	24	2	13	0	0	0	1	0.992	21.1181	138	1	1.1	0.9
	25	2	0	0	0	0	1	1.05	28.1844	138	1	1.1	0.9
	26	2	0	0	0	0	1	1.015	29.965	345	1	1.1	0.9
	27	2	71	13	0	0	1	0.968	15.6126	138	1	1.1	0.9
	28	1	17	7	0	0	1	0.96157	13.888	138	1	1.1	0.9
	29	1	24	4	0	0	1	0.96322	12.8956	138	1	1.1	0.9
	30	1	0	0	0	0	1	0.98552	19.0402	345	1	1.1	0.9
	31	2	43	27	0	0	1	0.967	13.0125	138	1	1.1	0.9
	32	2	59	23	0	0	1	0.96359	15.06	138	1	1.1	0.9
	34	2	59	26	0	14	1	0.98586	11.5065	138	1	1.1	0.9
	35	1	33	9	0	0	1	0.98068	11.0793	138	1	1.1	0.9
	36	2	31	17	0	0	1	0.98	11.0837	138	1	1.1	0.9
	37	1	25	10	0	-35	1	0.99198	11.9703	138	1	1.1	0.9
	38	1	0	0	0	0	1	0.96198	17.1072	345	1	1.1	0.9
	40	2	98	33.5	0	0	1	0.97	7.524	138	1	1.1	0.9
	42	2	114.5	28	0	0	1	0.985	8.6734	138	1	1.1	0.9
	43	1	18	7	0	0	1	0.97848	11.4604	138	1	1.1	0.9
	44	1	16	8	0	10	1	0.98501	13.946	138	1	1.1	0.9
	45	1	53	22	0	10	1	0.98665	15.7768	138	1	1.1	0.9
	46	2	38	15.5	0	10	1	1.005	18.5827	138	1	1.1	0.9
	47	1	34	0	0	0	1	1.01705	20.8051	138	1	1.1	0.9
	49	2	97	35.5	0	0	1	1.025	21.0284	138	1	1.1	0.9
	50	1	17	4	0	0	1	1.00108	18.9894	138	1	1.1	0.9
	51	1	23	9.5	0	0	1	0.96688	16.3703	138	1	1.1	0.9
	52	1	18	5	0	0	1	0.95682	15.4169	138	1	1.1	0.9
	53	1	23	11	0	0	1	0.94598	14.4419	138	1	1.1	0.9
	54	2	113	32	0	0	1	0.955	15.3537	138	1	1.1	0.9
	55	2	63	22	0	0	1	0.952	15.0637	138	1	1.1	0.9
	56	2	90	19.5	0	0	1	0.954	15.2504	138	1	1.1	0.9
	57	1	12	3	0	0	1	0.97058	16.4552	138	1	1.1	0.9
	59	2	277	113	0	0	1	0.985	19.453	138	1	1.1	0.9
	60	1	78	3	0	0	1	0.99316	23.2343	138	1	1.1	0.9
	61	2	0	0	0	0	1	0.995	24.1257	138	1	1.1	0.9
	62	2	91	17.5	0	0	1	0.998	23.5091	138	1	1.1	0.9
	63	1	0	0	0	0	1	0.96874	22.8316	345	1	1.1	0.9
	64	1	0	0	0	0	1	0.98374	24.5973	345	1	1.1	0.9
	65	2	0	0	0	0	1	1.005	27.7224	345	1	1.1	0.9
	66	2	53	21.5	0	0	1	1.05	27.5634	138	1	1.1	0.9
	68	1	0	0	0	0	1	1.00325	27.6013	345	1	1.1	0.9
	69	3	0	0	0	0	1	1.035	30	138	1	1.1	0.9
	70	2	66	20	0	0	1	0.984	22.6205	138	1	1.1	0.9
	71	1	0	0	0	0	1	0.98684	22.2096	138	1	1.1	0.9
	72	2	12	0	0	0	1	0.98	21.112	138	1	1.1	0.9
	73	2	6	0	0	0	1	0.991	21.9981	138	1	1.1	0.9
	74	2	68	27	0	12	1	0.958	21.6718	138	1	1.1	0.9
	75	1	63.5	18.5	0	0	1	0.96733	22.9337	138	1	1.1	0.9
	76	2	84.5	43.5	0	0	1	0.943	21.8042	138	1	1.1	0.9
	77	2	61	28	0	0	1	1.006	26.7587	138	1	1.1	0.9
	78	1	71	26	0	0	1	1.00342	26.4549	138	1	1.1	0.9
	79	1	39	32	0	20	1	1.00922	26.7541	138	1	1.1	0.9
	80	2	154.5	34.5	0	0	1	1.04	28.9999	138	1	1.1	0.9
	81	1	0	0	0	0	1	0.99681	28.1508	345	1	1.1	0.9
	82	1	54	27	0	20	1	0.98874	27.2804	138	1	1.1	0.9
	83	1	25.5	13.5	0	10	1	0.98452	28.4707	138	1	1.1	0.9
	85	2	63.5	28.5	0	0	1	0.985	32.5588	138	1	1.1	0.9
	87	2	10	5	0	0	1	1.015	31.4486	138	1	1.1	0.9
	89	2	24	5	0	0	1	1.005	39.7458	138	1	1.1	0.9
	90	2	163	42	0	0	1	0.985	33.3411	138	1	1.1	0.9
	91	2	10	0	0	0	1	0.98	33.3601	138	1	1.1	0.9
	92	2	71	13.5	0	0	1	0.99228	33.8592	138	1	1.1	0.9
	94	1	57	35	0	0	1	0.99057	28.6941	138	1	1.1	0.9
	96	1	66.5	35	0	0	1	0.99267	27.5539	138	1	1.1	0.9
	99	2	42	0	0	0	1	1.01	27.0891	138	1	1.1	0.9
	100	2	54	22	0	0	1	1.017	28.0863	138	1	1.1	0.9
	101	1	22	15	0	0	1	0.99244	29.6586	138	1	1.1	0.9
	102	1	5	3	0	0	1	0.991	32.356	138	1	1.1	0.9
	103	2	23	16	0	0	1	1.00072	24.4935	138	1	1.1	0.9
	104	2	38	25	0	0	1	0.971	21.7479	138	1	1.1	0.9
	105	2	31	26	0	20	1	0.96599	20.6259	138	1	1.1	0.9
	106	1	43	16	0	0	1	0.96179	20.3778	138	1	1.1	0.9
	107	2	50	12	0	6	1	0.952	17.5878	138	1	1.1	0.9
	108	1	2	1	0	0	1	0.96681	19.4352	138	1	1.1	0.9
	109	1	8	3	0	0	1	0.96746	18.9861	138	1	1.1	0.9
	110	2	39	30	0	6	1	0.973	18.1474	138	1	1.1	0.9
	111	2	0	0	0	0	1	0.98	19.7925	138	1	1.1	0.9
	112	2	68	13	0	0	1	0.975	15.0482	138	1	1.1	0.9
	113	2	6	0	0	0	1	0.993	14.0037	138	1	1.1	0.9
	114	1	8	3	0	0	1	0.96044	14.7298	138	1	1.1	0.9
	115	1	22	7	0	0	1	0.96032	14.7221	138	1	1.1	0.9
	116	2	184	0	0	0	1	1.005	27.1664	345	1	1.1	0.9
	201	2	51	27	0	0	1	0.955	10.9828	138	1	1.1	0.9
	202	1	20	9	0	0	1	0.97139	11.5228	138	1	1.1	0.9
	203	1	39	10	0	0	1	0.96769	11.8662	138	1	1.1	0.9
	204	2	39	12	0	0	1	0.998	15.5836	138	1	1.1	0.9
	205	1	0	0	0	-40	1	1.00198	16.0287	138	1	1.1	0.9
	206	2	52	22	0	0	1	0.99	13.3018	138	1	1.1	0.9
	207	1	19	2	0	0	1	0.98933	12.8575	138	1	1.1	0.9
	208	2	28	0	0	0	1	1.015	21.0492	345	1	1.1	0.9
	209	1	0	0	0	0	1	1.04292	28.3033	345	1	1.1	0.9
	210	2	0	0	0	0	1	1.05	35.8842	345	1	1.1	0.9
	211	1	87	31	0	0	1	0.98509	13.0161	138	1	1.1	0.9
	212	2	86.5	23.5	0	0	1	0.99	12.4993	138	1	1.1	0.9
	215	2	125.5	43	0	0	1	0.97	11.4894	138	1	1.1	0.9
	217	1	23.5	8	0	0	1	0.99513	14.0056	138	1	1.1	0.9
	218	2	60	34	0	0	1	0.973	11.792	138	1	1.1	0.9
	219	2	45	25	0	0	1	0.96343	11.3074	138	1	1.1	0.9
	220	1	18	3	0	0	1	0.95806	12.1872	138	1	1.1	0.9
	221	1	14	8	0	0	1	0.95862	13.7751	138	1	1.1	0.9
	222	1	10	5	0	0	1	0.96965	16.3296	138	1	1.1	0.9
	223	1	7	3	0	0	1	0.99966	21.2503	138	1	1.1	0.9
	224	2	13	0	0	0	1	0.992	21.1181	138	1	1.1	0.9
	225	2	0	0	0	0	1	1.05	28.1844	138	1	1.1	0.9
	226	2	0	0	0	0	1	1.015	29.965	345	1	1.1	0.9
	227	2	71	13	0	0	1	0.968	15.6126	138	1	1.1	0.9
	228	1	17	7	0	0	1	0.96157	13.888	138	1	1.1	0.9
	229	1	24	4	0	0	1	0.96322	12.8956	138	1	1.1	0.9
	230	1	0	0	0	0	1	0.98552	19.0402	345	1	1.1	0.9
	231	2	43	27	0	0	1	0.967	13.0125	138	1	1.1	0.9
	232	2	59	23	0	0	1	0.96359	15.06	138	1	1.1	0.9
	234	2	59	26	0	14	1	0.98586	11.5065	138	1	1.1	0.9
	235	1	33	9	0	0	1	0.98068	11.0793	138	1	1.1	0.9
	236	2	31	17	0	0	1	0.98	11.0837	138	1	1.1	0.9
	237	1	25	10	0	-35	1	0.99198	11.9703	138	1	1.1	0.9
	238	1	0	0	0	0	1	0.96198	17.1072	345	1	1.1	0.9
	240	2	98	33.5	0	0	1	0.97	7.524	138	1	1.1	0.9
	242	2	114.5	28	0	0	1	0.985	8.6734	138	1	1.1	0.9
	243	1	18	7	0	0	1	0.97848	11.4604	138	1	1.1	0.9
	244	1	16	8	0	10	1	0.98501	13.946	138	1	1.1	0.9
	245	1	53	22	0	10	1	0.98665	15.7768	138	1	1.1	0.9
	246	2	38	15.5	0	10	1	1.005	18.5827	138	1	1.1	0.9
	247	1	34	0	0	0	1	1.01705	20.8051	138	1	1.1	0.9
	249	2	97	35.5	0	0	1	1.025	21.0284	138	1	1.1	0.9
	250	1	17	4	0	0	1	1.00108	18.9894	138	1	1.1	0.9
	251	1	23	9.5	0	0	1	0.96688	16.3703	138	1	1.1	0.9
	252	1	18	5	0	0	1	0.95682	15.4169	138	1	1.1	0.9
	253	1	23	11	0	0	1	0.94598	14.4419	138	1	1.1	0.9
	254	2	113	32	0	0	1	0.955	15.3537	138	1	1.1	0.9
	255	2	63	22	0	0	1	0.952	15.0637	138	1	1.1	0.9
	256	2	90	19.5	0	0	1	0.954	15.2504	138	1	1.1	0.9
	257	1	12	3	0	0	1	0.97058	16.4552	138	1	1.1	0.9
	259	2	277	113	0	0	1	0.985	19.453	138	1	1.1	0.9
	260	1	78	3	0	0	1	0.99316	23.2343	138	1	1.1	0.9
	261	2	0	0	0	0	1	0.995	24.1257	138	1	1.1	0.9
	262	2	91	17.5	0	0	1	0.998	23.5091	138	1	1.1	0.9
	263	1	0	0	0	0	1	0.96874	22.8316	345	1	1.1	0.9
	264	1	0	0	0	0	1	0.98374	24.5973	345	1	1.1	0.9
	265	2	0	0	0	0	1	1.005	27.7224	345	1	1.1	0.9
	266	2	53	21.5	0	0	1	1.05	27.5634	138	1	1.1	0.9
	268	1	0	0	0	0	1	1.00325	27.6013	345	1	1.1	0.9
	269	2	0	0	0	0	1	1.035	30	138	1	1.1	0.9
	270	2	66	20	0	0	1	0.984	22.6205	138	1	1.1	0.9
	271	1	0	0	0	0	1	0.98684	22.2096	138	1	1.1	0.9
	272	2	12	0	0	0	1	0.98	21.112	138	1	1.1	0.9
	273	2	6	0	0	0	1	0.991	21.9981	138	1	1.1	0.9
	274	2	68	27	0	12	1	0.958	21.6718	138	1	1.1	0.9
	275	1	63.5	18.5	0	0	1	0.96733	22.9337	138	1	1.1	0.9
	276	2	84.5	43.5	0	0	1	0.943	21.8042	138	1	1.1	0.9
	277	2	61	28	0	0	1	1.006	26.7587	138	1	1.1	0.9
	278	1	71	26	0	0	1	1.00342	26.4549	138	1	1.1	0.9
	279	1	39	32	0	20	1	1.00922	26.7541	138	1	1.1	0.9
	280	2	154.5	34.5	0	0	1	1.04	28.9999	138	1	1.1	0.9
	281	1	0	0	0	0	1	0.99681	28.1508	345	1	1.1	0.9
	282	1	54	27	0	20	1	0.98874	27.2804	138	1	1.1	0.9
	283	1	25.5	13.5	0	10	1	0.98452	28.4707	138	1	1.1	0.9
	285	2	63.5	28.5	0	0	1	0.985	32.5588	138	1	1.1	0.9
	287	2	10	5	0	0	1	1.015	31.4486	138	1	1.1	0.9
	289	2	24	5	0	0	1	1.005	39.7458	138	1	1.1	0.9
	290	2	163	42	0	0	1	0.985	33.3411	138	1	1.1	0.9
	291	2	10	0	0	0	1	0.98	33.3601	138	1	1.1	0.9
	292	2	71	13.5	0	0	1	0.99228	33.8592	138	1	1.1	0.9
	294	1	57	35	0	0	1	0.99057	28.6941	138	1	1.1	0.9
	296	1	66.5	35	0	0	1	0.99267	27.5539	138	1	1.1	0.9
	299	2	42	0	0	0	1	1.01	27.0891	138	1	1.1	0.9
	300	2	54	22	0	0	1	1.017	28.0863	138	1	1.1	0.9
	301	1	22	15	0	0	1	0.99244	29.6586	138	1	1.1	0.9
	302	1	5	3	0	0	1	0.991	32.356	138	1	1.1	0.9
	303	2	23	16	0	0	1	1.00072	24.4935	138	1	1.1	0.9
	304	2	38	25	0	0	1	0.971	21.7479	138	1	1.1	0.9
	305	2	31	26	0	20	1	0.96599	20.6259	138	1	1.1	0.9
	306	1	43	16	0	0	1	0.96179	20.3778	138	1	1.1	0.9
	307	2	50	12	0	6	1	0.952	17.5878	138	1	1.1	0.9
	308	1	2	1	0	0	1	0.96681	19.4352	138	1	1.1	0.9
	309	1	8	3	0	0	1	0.96746	18.9861	138	1	1.1	0.9
	310	2	39	30	0	6	1	0.973	18.1474	138	1	1.1	0.9
	311	2	0	0	0	0	1	0.98	19.7925	138	1	1.1	0.9
	312	2	68	13	0	0	1	0.975	15.0482	138	1	1.1	0.9
	313	2	6	0	0	0	1	0.993	14.0037	138	1	1.1	0.9
	314	1	8	3	0	0	1	0.96044	14.7298	138	1	1.1	0.9
	315	1	22	7	0	0	1	0.96032	14.7221	138	1	1.1	0.9
	316	2	184	0	0	0	1	1.005	27.1664	345	1	1.1	0.9
...
];

%% gen data
mpc.gen = [
	1	0	-3.104	15	-5	0.955	100	1	100	5
	4	0	-15.005	40	-30	0.998	100	1	100	5
	6	0	15.93	50	-30	0.99	100	1	100	5
	8	0	40	40	-30	1.015	100	1	100	5
	10	450	-51.042	200	-147	1.05	100	1	550	150
	12	100	91.274	120	-35	0.99	100	1	185	100
	15	0	3.06	30	-10	0.97	100	1	100	10
	18	0	25.532	50	-16	0.973	100	1	100	25
	19	0	-8	24	-8	0.962	100	1	100	5
	24	0	-15.282	300	-300	0.992	100	1	800	80
	25	220	49.798	140	-47	1.05	100	1	320	100
	26	314	9.905	150	-100	1.015	100	1	414	100
	27	0	2.831	40	-30	0.968	100	1	100	5
	31	8	31.976	40	-30	0.967	100	1	107	8
	32	0	-14	42	-14	0.963	100	1	100	25
	34	0	-8	24	-8	0.984	100	1	100	8
	36	0	-1.252	24	-8	0.98	100	1	100	25
	40	0	26.886	40	-30	0.97	100	1	100	8
	42	0	40	40	-30	0.985	100	1	100	8
	46	25	-5.231	40	-30	1.005	100	1	119	25
	49	204	115.647	210	-85	1.025	100	1	304	50
	54	50	3.902	40	-30	0.955	100	1	148	50
	55	0	4.664	23	-8	0.952	100	1	100	25
	56	0	-2.286	15	-8	0.954	100	1	100	25
	59	155	76.834	150	-60	0.985	100	1	255	50
	61	160	-40.394	150	-100	0.995	100	1	260	50
	62	0	1.259	20	-20	0.998	100	1	100	25
	65	391	80.812	200	-67	1.005	100	1	491	100
	66	392	-1.951	200	-67	1.05	100	1	492	100
	69	513.388	-82.378	300	-300	1.035	100	1	800	80
	70	0	9.664	32	-10	0.984	100	1	100	30
	72	0	-11.13	40	-30	0.98	100	1	100	10
	73	0	9.651	40	-30	0.991	100	1	100	5
	74	0	-5.628	9	-6	0.958	100	1	100	5
	76	0	5.269	23	-8	0.943	100	1	100	25
	77	0	11.943	70	-20	1.006	100	1	100	25
	80	477	105.05	280	-165	1.04	100	1	577	150
	85	0	-5.768	23	-8	0.985	100	1	100	8
	87	10	11.022	100	-100	1.015	100	1	100	10
	89	607	-11.794	300	-210	1.005	100	1	800	8
	90	0	59.3	260	-260	0.985	100	1	260	50
	91	0	-14.847	100	-100	0.98	100	1	260	50
	92	0	-3	9	-3	0.99	100	1	100	10
	99	0	-17.537	40	-30	1.01	100	1	100	25
	100	252	110.058	155	-50	1.017	100	1	352	100
	103	40	40	40	-15	1.01	100	1	140	8
	104	0	5.643	23	-8	0.971	100	1	100	25
	105	0	-8	23	-8	0.965	100	1	100	25
	107	0	5.694	40	-30	0.952	100	1	100	8
	110	0	4.854	23	-8	0.973	100	1	100	25
	111	36	-1.844	40	-30	0.98	100	1	136	25
	112	0	40	40	-30	0.975	100	1	100	25
	113	0	6.323	40	-30	0.993	100	1	100	25
	116	0	40	40	-30	1.005	100	1	100	25
	201	0	-3.104	15	-5	0.955	100	1	100	5
	204	0	-15.005	40	-30	0.998	100	1	100	5
	206	0	15.93	50	-30	0.99	100	1	100	5
	208	0	40	40	-30	1.015	100	1	100	5
	210	450	-51.042	200	-147	1.05	100	1	550	150
	212	100	91.274	120	-35	0.99	100	1	185	100
	215	0	3.06	30	-10	0.97	100	1	100	10
	218	0	25.532	50	-16	0.973	100	1	100	25
	219	0	-8	24	-8	0.962	100	1	100	5
	224	0	-15.282	300	-300	0.992	100	1	800	80
	225	220	49.798	140	-47	1.05	100	1	320	100
	226	314	9.905	150	-100	1.015	100	1	414	100
	227	0	2.831	40	-30	0.968	100	1	100	5
	231	8	31.976	40	-30	0.967	100	1	107	8
	232	0	-14	42	-14	0.963	100	1	100	25
	234	0	-8	24	-8	0.984	100	1	100	8
	236	0	-1.252	24	-8	0.98	100	1	100	25
	240	0	26.886	40	-30	0.97	100	1	100	8
	242	0	40	40	-30	0.985	100	1	100	8
	246	25	-5.231	40	-30	1.005	100	1	119	25
	249	204	115.647	210	-85	1.025	100	1	304	50
	254	50	3.902	40	-30	0.955	100	1	148	50
	255	0	4.664	23	-8	0.952	100	1	100	25
	256	0	-2.286	15	-8	0.954	100	1	100	25
	259	155	76.834	150	-60	0.985	100	1	255	50
	261	160	-40.394	150	-100	0.995	100	1	260	50
	262	0	1.259	20	-20	0.998	100	1	100	25
	265	391	80.812	200	-67	1.005	100	1	491	100
	266	392	-1.951	200	-67	1.05	100	1	492	100
	269	513.388	-82.378	300	-300	1.035	100	1	800	80
	270	0	9.664	32	-10	0.984	100	1	100	30
	272	0	-11.13	40	-30	0.98	100	1	100	10
	273	0	9.651	40	-30	0.991	100	1	100	5
	274	0	-5.628	9	-6	0.958	100	1	100	5
	276	0	5.269	23	-8	0.943	100	1	100	25
	277	0	11.943	70	-20	1.006	100	1	100	25
	280	477	105.05	280	-165	1.04	100	1	577	150
	285	0	-5.768	23	-8	0.985	100	1	100	8
	287	10	11.022	100	-100	1.015	100	1	100	10
	289	607	-11.794	300	-210	1.005	100	1	800	8
	290	0	59.3	260	-260	0.985	100	1	260	50
	291	0	-14.847	100	-100	0.98	100	1	260	50
	292	0	-3	9	-3	0.99	100	1	100	10
	299	0	-17.537	40	-30	1.01	100	1	100	25
	300	252	110.058	155	-50	1.017	100	1	352	100
	303	40	40	40	-15	1.01	100	1	140	8
	304	0	5.643	23	-8	0.971	100	1	100	25
	305	0	-8	23	-8	0.965	100	1	100	25
	307	0	5.694	40	-30	0.952	100	1	100	8
	310	0	4.854	23	-8	0.973	100	1	100	25
	311	36	-1.844	40	-30	0.98	100	1	136	25
	312	0	40	40	-30	0.975	100	1	100	25
	313	0	6.323	40	-30	0.993	100	1	100	25
	316	0	40	40	-30	1.005	100	1	100	25
	401	0	-3.104	15	-5	0.955	100	1	100	5
	404	0	-15.005	40	-30	0.998	100	1	100	5
	406	0	15.93	50	-30	0.99	100	1	100	5
	408	0	40	40	-30	1.015	100	1	100	5
	410	450	-51.042	200	-147	1.05	100	1	550	150
	412	100	91.274	120	-35	0.99	100	1	185	100
	415	0	3.06	30	-10	0.97	100	1	100	10
	418	0	25.532	50	-16	0.973	100	1	100	25
	419	0	-8	24	-8	0.962	100	1	100	5
	424	0	-15.282	300	-300	0.992	100	1	800	80
	425	220	49.798	140	-47	1.05	100	1	320	100
	426	314	9.905	150	-100	1.015	100	1	414	100
	427	0	2.831	40	-30	0.968	100	1	100	5
	431	8	31.976	40	-30	0.967	100	1	107	8
	432	0	-14	42	-14	0.963	100	1	100	25
	434	0	-8	24	-8	0.984	100	1	100	8
	436	0	-1.252	24	-8	0.98	100	1	100	25
	440	0	26.886	40	-30	0.97	100	1	100	8
	442	0	40	40	-30	0.985	100	1	100	8
	446	25	-5.231	40	-30	1.005	100	1	119	25
	449	204	115.647	210	-85	1.025	100	1	304	50
	454	50	3.902	40	-30	0.955	100	1	148	50
	455	0	4.664	23	-8	0.952	100	1	100	25
	456	0	-2.286	15	-8	0.954	100	1	100	25
	459	155	76.834	150	-60	0.985	100	1	255	50
	461	160	-40.394	150	-100	0.995	100	1	260	50
	462	0	1.259	20	-20	0.998	100	1	100	25
	465	391	80.812	200	-67	1.005	100	1	491	100
	466	392	-1.951	200	-67	1.05	100	1	492	100
	469	513.388	-82.378	300	-300	1.035	100	1	800	80
	470	0	9.664	32	-10	0.984	100	1	100	30
	472	0	-11.13	40	-30	0.98	100	1	100	10
	473	0	9.651	40	-30	0.991	100	1	100	5
	474	0	-5.628	9	-6	0.958	100	1	100	5
	476	0	5.269	23	-8	0.943	100	1	100	25
	477	0	11.943	70	-20	1.006	100	1	100	25
	480	477	105.05	280	-165	1.04	100	1	577	150
	485	0	-5.768	23	-8	0.985	100	1	100	8
	487	10	11.022	100	-100	1.015	100	1	100	10
	489	607	-11.794	300	-210	1.005	100	1	800	8
	490	0	59.3	260	-260	0.985	100	1	260	50
	491	0	-14.847	100	-100	0.98	100	1	260	50
	492	0	-3	9	-3	0.99	100	1	100	10
	499	0	-17.537	40	-30	1.01	100	1	100	25
	500	252	110.058	155	-50	1.017	100	1	352	100
	503	40	40	40	-15	1.01	100	1	140	8
	504	0	5.643	23	-8	0.971	100	1	100	25
	505	0	-8	23	-8	0.965	100	1	100	25
	507	0	5.694	40	-30	0.952	100	1	100	8
	510	0	4.854	23	-8	0.973	100	1	100	25
	511	36	-1.844	40	-30	0.98	100	1	136	25
	512	0	40	40	-30	0.975	100	1	100	25
	513	0	6.323	40	-30	0.993	100	1	100	25
	516	0	40	40	-30	1.005	100	1	100	25
	601	0	-3.104	15	-5	0.955	100	1	100	5
	604	0	-15.005	40	-30	0.998	100	1	100	5
	606	0	15.93	50	-30	0.99	100	1	100	5
	608	0	40	40	-30	1.015	100	1	100	5
	610	450	-51.042	200	-147	1.05	100	1	550	150
	612	100	91.274	120	-35	0.99	100	1	185	100
	615	0	3.06	30	-10	0.97	100	1	100	10
	618	0	25.532	50	-16	0.973	100	1	100	25
	619	0	-8	24	-8	0.962	100	1	100	5
	624	0	-15.282	300	-300	0.992	100	1	800	80
	625	220	49.798	140	-47	1.05	100	1	320	100
	626	314	9.905	150	-100	1.015	100	1	414	100
	627	0	2.831	40	-30	0.968	100	1	100	5
	631	8	31.976	40	-30	0.967	100	1	107	8
	632	0	-14	42	-14	0.963	100	1	100	25
	634	0	-8	24	-8	0.984	100	1	100	8
	636	0	-1.252	24	-8	0.98	100	1	100	25
	640	0	26.886	40	-30	0.97	100	1	100	8
	642	0	40	40	-30	0.985	100	1	100	8
	646	25	-5.231	40	-30	1.005	100	1	119	25
	649	204	115.647	210	-85	1.025	100	1	304	50
	654	50	3.902	40	-30	0.955	100	1	148	50
	655	0	4.664	23	-8	0.952	100	1	100	25
	656	0	-2.286	15	-8	0.954	100	1	100	25
	659	155	76.834	150	-60	0.985	100	1	255	50
	661	160	-40.394	150	-100	0.995	100	1	260	50
	662	0	1.259	20	-20	0.998	100	1	100	25
	665	391	80.812	200	-67	1.005	100	1	491	100
	666	392	-1.951	200	-67	1.05	100	1	492	100
	669	513.388	-82.378	300	-300	1.035	100	1	800	80
	670	0	9.664	32	-10	0.984	100	1	100	30
	672	0	-11.13	40	-30	0.98	100	1	100	10
	673	0	9.651	40	-30	0.991	100	1	100	5
	674	0	-5.628	9	-6	0.958	100	1	100	5
	676	0	5.269	23	-8	0.943	100	1	100	25
	677	0	11.943	70	-20	1.006	100	1	100	25
	680	477	105.05	280	-165	1.04	100	1	577	150
	685	0	-5.768	23	-8	0.985	100	1	100	8
...
];

%% generator cost data
mpc.gencost = [
	2	0	0	4	0	0	100.0000	0
	2	0	0	4	0	0	100.0000	0
	2	0	0	4	0	0	100.0000	0
	2	0	0	4	0	0	100.0000	0
	2	0	0	4	0	0	550.0000	0
	2	0	0	4	0	0	185.0000	0
	2	0	0	4	0	0	100.0000	0
	2	0	0	4	0	0	100.0000	0
	2	0	0	4	0	0	100.0000	0
	2	0	0	4	0	0	800.0000	0
	2	0	0	4	0	0	320.0000	0
	2	0	0	4	0	0	414.0000	0
	2	0	0	4	0	0	100.0000	0
	2	0	0	4	0	0	107.0000	0
	2	0	0	4	0	0	100.0000	0
	2	0	0	4	0	0	100.0000	0
	2	0	0	4	0	0	100.0000	0
	2	0	0	4	0	0	100.0000	0
	2	0	0	4	0	0	100.0000	0
	2	0	0	4	0	0	119.0000	0
	2	0	0	4	0	0	304.0000	0
	2	0	0	4	0	0	148.0000	0
	2	0	0	4	0	0	100.0000	0
	2	0	0	4	0	0	100.0000	0
	2	0	0	4	0	0	255.0000	0
	2	0	0	4	0	0	260.0000	0
	2	0	0	4	0	0	100.0000	0
	2	0	0	4	0	0	491.0000	0
	2	0	0	4	0	0	492.0000	0
	2	0	0	4	0	0	800.0000	0
	2	0	0	4	0	0	100.0000	0
	2	0	0	4	0	0	100.0000	0
	2	0	0	4	0	0	100.0000	0
	2	0	0	4	0	0	100.0000	0
	2	0	0	4	0	0	100.0000	0
	2	0	0	4	0	0	100.0000	0
	2	0	0	4	0	0	577.0000	0
	2	0	0	4	0	0	100.0000	0
	2	0	0	4	0	0	100.0000	0
	2	0	0	4	0	0	800.0000	0
	2	0	0	4	0	0	260.0000	0
	2	0	0	4	0	0	260.0000	0
	2	0	0	4	0	0	100.0000	0
	2	0	0	4	0	0	100.0000	0
	2	0	0	4	0	0	352.0000	0
	2	0	0	4	0	0	140.0000	0
	2	0	0	4	0	0	100.0000	0
	2	0	0	4	0	0	100.0000	0
	2	0	0	4	0	0	100.0000	0
	2	0	0	4	0	0	100.0000	0
	2	0	0	4	0	0	136.0000	0
	2	0	0	4	0	0	100.0000	0
	2	0	0	4	0	0	100.0000	0
	2	0	0	4	0	0	100.0000	0
	2	0	0	4	0	0	100.0000	0
	2	0	0	4	0	0	100.0000	0
	2	0	0	4	0	0	100.0000	0
	2	0	0	4	0	0	100.0000	0
	2	0	0	4	0	0	550.0000	0
	2	0	0	4	0	0	185.0000	0
	2	0	0	4	0	0	100.0000	0
	2	0	0	4	0	0	100.0000	0
	2	0	0	4	0	0	100.0000	0
	2	0	0	4	0	0	800.0000	0
	2	0	0	4	0	0	320.0000	0
	2	0	0	4	0	0	414.0000	0
	2	0	0	4	0	0	100.0000	0
	2	0	0	4	0	0	107.0000	0
	2	0	0	4	0	0	100.0000	0
	2	0	0	4	0	0	100.0000	0
	2	0	0	4	0	0	100.0000	0
	2	0	0	4	0	0	100.0000	0
	2	0	0	4	0	0	100.0000	0
	2	0	0	4	0	0	119.0000	0
	2	0	0	4	0	0	304.0000	0
	2	0	0	4	0	0	148.0000	0
	2	0	0	4	0	0	100.0000	0
	2	0	0	4	0	0	100.0000	0
	2	0	0	4	0	0	255.0000	0
	2	0	0	4	0	0	260.0000	0
	2	0	0	4	0	0	100.0000	0
	2	0	0	4	0	0	491.0000	0
	2	0	0	4	0	0	492.0000	0
	2	0	0	4	0	0	800.0000	0
	2	0	0	4	0	0	100.0000	0
	2	0	0	4	0	0	100.0000	0
	2	0	0	4	0	0	100.0000	0
	2	0	0	4	0	0	100.0000	0
	2	0	0	4	0	0	100.0000	0
	2	0	0	4	0	0	100.0000	0
	2	0	0	4	0	0	577.0000	0
	2	0	0	4	0	0	100.0000	0
	2	0	0	4	0	0	100.0000	0
	2	0	0	4	0	0	800.0000	0
	2	0	0	4	0	0	260.0000	0
	2	0	0	4	0	0	260.0000	0
	2	0	0	4	0	0	100.0000	0
	2	0	0	4	0	0	100.0000	0
	2	0	0	4	0	0	352.0000	0
	2	0	0	4	0	0	140.0000	0
	2	0	0	4	0	0	100.0000	0
	2	0	0	4	0	0	100.0000	0
	2	0	0	4	0	0	100.0000	0
	2	0	0	4	0	0	100.0000	0
	2	0	0	4	0	0	136.0000	0
	2	0	0	4	0	0	100.0000	0
	2	0	0	4	0	0	100.0000	0
	2	0	0	4	0	0	100.0000	0
	2	0	0	4	0	0	100.0000	0
	2	0	0	4	0	0	100.0000	0
	2	0	0	4	0	0	100.0000	0
	2	0	0	4	0	0	100.0000	0
	2	0	0	4	0	0	550.0000	0
	2	0	0	4	0	0	185.0000	0
	2	0	0	4	0	0	100.0000	0
	2	0	0	4	0	0	100.0000	0
	2	0	0	4	0	0	100.0000	0
	2	0	0	4	0	0	800.0000	0
	2	0	0	4	0	0	320.0000	0
	2	0	0	4	0	0	414.0000	0
	2	0	0	4	0	0	100.0000	0
	2	0	0	4	0	0	107.0000	0
	2	0	0	4	0	0	100.0000	0
	2	0	0	4	0	0	100.0000	0
	2	0	0	4	0	0	100.0000	0
	2	0	0	4	0	0	100.0000	0
	2	0	0	4	0	0	100.0000	0
	2	0	0	4	0	0	119.0000	0
	2	0	0	4	0	0	304.0000	0
	2	0	0	4	0	0	148.0000	0
	2	0	0	4	0	0	100.0000	0
	2	0	0	4	0	0	100.0000	0
	2	0	0	4	0	0	255.0000	0
	2	0	0	4	0	0	260.0000	0
	2	0	0	4	0	0	100.0000	0
	2	0	0	4	0	0	491.0000	0
	2	0	0	4	0	0	492.0000	0
	2	0	0	4	0	0	800.0000	0
	2	0	0	4	0	0	100.0000	0
	2	0	0	4	0	0	100.0000	0
	2	0	0	4	0	0	100.0000	0
	2	0	0	4	0	0	100.0000	0
	2	0	0	4	0	0	100.0000	0
	2	0	0	4	0	0	100.0000	0
	2	0	0	4	0	0	577.0000	0
	2	0	0	4	0	0	100.0000	0
	2	0	0	4	0	0	100.0000	0
	2	0	0	4	0	0	800.0000	0
	2	0	0	4	0	0	260.0000	0
	2	0	0	4	0	0	260.0000	0
	2	0	0	4	0	0	100.0000	0
	2	0	0	4	0	0	100.0000	0
	2	0	0	4	0	0	352.0000	0
	2	0	0	4	0	0	140.0000	0
	2	0	0	4	0	0	100.0000	0
	2	0	0	4	0	0	100.0000	0
	2	0	0	4	0	0	100.0000	0
	2	0	0	4	0	0	100.0000	0
	2	0	0	4	0	0	136.0000	0
	2	0	0	4	0	0	100.0000	0
	2	0	0	4	0	0	100.0000	0
	2	0	0	4	0	0	100.0000	0
	2	0	0	4	0	0	100.0000	0
	2	0	0	4	0	0	100.0000	0
	2	0	0	4	0	0	100.0000	0
	2	0	0	4	0	0	100.0000	0
	2	0	0	4	0	0	550.0000	0
	2	0	0	4	0	0	185.0000	0
	2	0	0	4	0	0	100.0000	0
	2	0	0	4	0	0	100.0000	0
	2	0	0	4	0	0	100.0000	0
	2	0	0	4	0	0	800.0000	0
	2	0	0	4	0	0	320.0000	0
	2	0	0	4	0	0	414.0000	0
	2	0	0	4	0	0	100.0000	0
	2	0	0	4	0	0	107.0000	0
	2	0	0	4	0	0	100.0000	0
	2	0	0	4	0	0	100.0000	0
	2	0	0	4	0	0	100.0000	0
	2	0	0	4	0	0	100.0000	0
	2	0	0	4	0	0	100.0000	0
	2	0	0	4	0	0	119.0000	0
	2	0	0	4	0	0	304.0000	0
	2	0	0	4	0	0	148.0000	0
	2	0	0	4	0	0	100.0000	0
	2	0	0	4	0	0	100.0000	0
	2	0	0	4	0	0	255.0000	0
	2	0	0	4	0	0	260.0000	0
	2	0	0	4	0	0	100.0000	0
	2	0	0	4	0	0	491.0000	0
	2	0	0	4	0	0	492.0000	0
	2	0	0	4	0	0	800.0000	0
	2	0	0	4	0	0	100.0000	0
	2	0	0	4	0	0	100.0000	0
	2	0	0	4	0	0	100.0000	0
	2	0	0	4	0	0	100.0000	0
	2	0	0	4	0	0	100.0000	0
	2	0	0	4	0	0	100.0000	0
	2	0	0	4	0	0	577.0000	0
	2	0	0	4	0	0	100.0000	0
...
];

%% branch data
mpc.branch = [
	1	2	0.0303	0.0999	0.0254	75	90	90	0	0	1	-360	360
	1	3	0.0129	0.0424	0.01082	75	90	90	0	0	1	-360	360
	2	12	0.0187	0.0616	0.01572	150	180	180	0	0	1	-360	360
	3	5	0.0241	0.108	0.0284	150	180	180	0	0	1	-360	360
	3	12	0.0484	0.16	0.0406	75	90	90	0	0	1	-360	360
	4	5	0.00176	0.00798	0.0021	150	180	180	0	0	1	-360	360
	4	11	0.0209	0.0688	0.01748	150	180	180	0	0	1	-360	360
	5	6	0.0119	0.054	0.01426	150	180	180	0	0	1	-360	360
	5	11	0.0203	0.0682	0.01738	150	180	180	0	0	1	-360	360
	6	7	0.00459	0.0208	0.0055	150	180	180	0	0	1	-360	360
	7	12	0.00862	0.034	0.00874	150	180	180	0	0	1	-360	360
	8	9	0.00244	0.0305	1.162	1200	1500	1500	0	0	1	-360	360
	8	30	0.00431	0.0504	0.514	1200	1500	1500	0	0	1	-360	360
	9	10	0.00258	0.0322	1.23	1200	1500	1500	0	0	1	-360	360
	11	12	0.00595	0.0196	0.00502	150	180	180	0	0	1	-360	360
	15	17	0.0132	0.0437	0.0444	215	230	230	0	0	1	-360	360
	15	19	0.012	0.0394	0.0101	150	180	180	0	0	1	-360	360
	17	18	0.0123	0.0505	0.01298	150	180	180	0	0	1	-360	360
	17	31	0.0474	0.1563	0.0399	150	180	180	0	0	1	-360	360
	17	113	0.00913	0.0301	0.00768	150	180	180	0	0	1	-360	360
	18	19	0.01119	0.0493	0.01142	150	180	180	0	0	1	-360	360
	19	20	0.0252	0.117	0.0298	75	90	90	0	0	1	-360	360
	19	34	0.0752	0.247	0.0632	150	180	180	0	0	1	-360	360
	20	21	0.0183	0.0849	0.0216	150	180	180	0	0	1	-360	360
	21	22	0.0209	0.097	0.0246	150	180	180	0	0	1	-360	360
	22	23	0.0342	0.159	0.0404	150	180	180	0	0	1	-360	360
	23	24	0.0135	0.0492	0.0498	150	180	180	0	0	1	-360	360
	23	25	0.0156	0.08	0.0864	215	230	230	0	0	1	-360	360
	23	32	0.0317	0.1153	0.1173	150	180	180	0	0	1	-360	360
	24	70	0.0221	0.4115	0.10198	75	90	90	0	0	1	-360	360
	24	72	0.0488	0.196	0.0488	75	90	90	0	0	1	-360	360
	25	27	0.0318	0.163	0.1764	215	230	230	0	0	1	-360	360
	26	30	0.00799	0.086	0.908	1200	1500	1500	0	0	1	-360	360
	27	28	0.01913	0.0855	0.0216	150	180	180	0	0	1	-360	360
	27	32	0.0229	0.0755	0.01926	150	180	180	0	0	1	-360	360
	27	115	0.0164	0.0741	0.01972	75	90	90	0	0	1	-360	360
	28	29	0.0237	0.0943	0.0238	75	90	90	0	0	1	-360	360
	29	31	0.0108	0.0331	0.0083	75	90	90	0	0	1	-360	360
	30	38	0.00464	0.054	0.422	1200	1500	1500	0	0	1	-360	360
	31	32	0.0298	0.0985	0.0251	150	180	180	0	0	1	-360	360
	32	113	0.0615	0.203	0.0518	150	180	180	0	0	1	-360	360
	32	114	0.0135	0.0612	0.01628	75	90	90	0	0	1	-360	360
	34	36	0.00871	0.0268	0.00568	150	180	180	0	0	1	-360	360
	34	37	0.00256	0.0094	0.00984	150	180	180	0	0	1	-360	360
	34	43	0.0413	0.1681	0.04226	75	90	90	0	0	1	-360	360
	35	36	0.00224	0.0102	0.00268	150	180	180	0	0	1	-360	360
	35	37	0.011	0.0497	0.01318	150	180	180	0	0	1	-360	360
	37	40	0.0505	0.1665	0.04252	75	90	90	0	0	1	-360	360
	38	65	0.00901	0.0986	1.046	1200	1500	1500	0	0	1	-360	360
	40	42	0.0555	0.183	0.0466	75	90	90	0	0	1	-360	360
	42	49	0.0715	0.323	0.086	150	180	180	0	0	1	-360	360
	42	49	0.0715	0.323	0.086	150	180	180	0	0	1	-360	360
	43	44	0.0608	0.2454	0.06068	75	90	90	0	0	1	-360	360
	44	45	0.0224	0.0901	0.0224	150	180	180	0	0	1	-360	360
	45	46	0.04	0.1356	0.0332	75	90	90	0	0	1	-360	360
	45	49	0.0684	0.186	0.0444	150	180	180	0	0	1	-360	360
	46	47	0.038	0.127	0.0316	150	180	180	0	0	1	-360	360
	47	49	0.0191	0.0625	0.01604	150	180	180	0	0	1	-360	360
	47	69	0.0844	0.2778	0.07092	150	180	180	0	0	1	-360	360
	49	50	0.0267	0.0752	0.01874	150	180	180	0	0	1	-360	360
	49	51	0.0486	0.137	0.0342	150	180	180	0	0	1	-360	360
	49	54	0.073	0.289	0.0738	75	90	90	0	0	1	-360	360
	49	54	0.073	0.289	0.0738	75	90	90	0	0	1	-360	360
	49	66	0.018	0.0919	0.0248	215	230	230	0	0	1	-360	360
	49	66	0.018	0.0919	0.0248	215	230	230	0	0	1	-360	360
	49	69	0.0985	0.324	0.0828	150	180	180	0	0	1	-360	360
	50	57	0.0474	0.134	0.0332	75	90	90	0	0	1	-360	360
	51	52	0.0203	0.0588	0.01396	75	90	90	0	0	1	-360	360
	52	53	0.0405	0.1635	0.04058	75	90	90	0	0	1	-360	360
	53	54	0.0263	0.122	0.031	75	90	90	0	0	1	-360	360
	54	55	0.0169	0.0707	0.0202	75	90	90	0	0	1	-360	360
	54	56	0.00275	0.00955	0.00732	150	180	180	0	0	1	-360	360
	54	59	0.0503	0.2293	0.0598	75	90	90	0	0	1	-360	360
	55	56	0.00488	0.0151	0.00374	75	90	90	0	0	1	-360	360
	55	59	0.04739	0.2158	0.05646	75	90	90	0	0	1	-360	360
	56	57	0.0343	0.0966	0.0242	75	90	90	0	0	1	-360	360
	56	59	0.0825	0.251	0.0569	75	90	90	0	0	1	-360	360
	56	59	0.0825	0.251	0.0569	75	90	90	0	0	1	-360	360
	59	60	0.0317	0.145	0.0376	150	180	180	0	0	1	-360	360
	59	61	0.0328	0.15	0.0388	150	180	180	0	0	1	-360	360
	60	61	0.00264	0.0135	0.01456	150	180	180	0	0	1	-360	360
	60	62	0.0123	0.0561	0.01468	150	180	180	0	0	1	-360	360
	61	62	0.00824	0.0376	0.0098	150	180	180	0	0	1	-360	360
	62	66	0.0482	0.218	0.0578	150	180	180	0	0	1	-360	360
	63	64	0.00172	0.02	0.216	1200	1500	1500	0	0	1	-360	360
	64	65	0.00269	0.0302	0.38	1200	1500	1500	0	0	1	-360	360
	65	68	0.00138	0.016	0.638	1200	1500	1500	0	0	1	-360	360
	68	81	0.00175	0.0202	0.808	1200	1500	1500	0	0	1	-360	360
	68	116	0.00034	0.00405	0.164	1200	1500	1500	0	0	1	-360	360
	69	70	0.03	0.127	0.122	215	230	230	0	0	1	-360	360
	69	75	0.0405	0.122	0.124	215	230	230	0	0	1	-360	360
	69	77	0.0309	0.101	0.1038	150	180	180	0	0	1	-360	360
	70	71	0.00882	0.0355	0.00878	150	180	180	0	0	1	-360	360
	70	74	0.0401	0.1323	0.03368	75	90	90	0	0	1	-360	360
	70	75	0.0428	0.141	0.036	75	90	90	0	0	1	-360	360
	71	72	0.0446	0.18	0.04444	75	90	90	0	0	1	-360	360
	71	73	0.00866	0.0454	0.01178	75	90	90	0	0	1	-360	360
	74	75	0.0123	0.0406	0.01034	150	180	180	0	0	1	-360	360
	75	77	0.0601	0.1999	0.04978	75	90	90	0	0	1	-360	360
	76	77	0.0444	0.148	0.0368	150	180	180	0	0	1	-360	360
	77	78	0.00376	0.0124	0.01264	150	180	180	0	0	1	-360	360
	77	80	0.017	0.0485	0.0472	150	180	180	0	0	1	-360	360
	77	80	0.017	0.0485	0.0472	150	180	180	0	0	1	-360	360
	77	82	0.0298	0.0853	0.08174	215	230	230	0	0	1	-360	360
	78	79	0.00546	0.0244	0.00648	75	90	90	0	0	1	-360	360
	79	80	0.0156	0.0704	0.0187	150	180	180	0	0	1	-360	360
	80	96	0.0356	0.182	0.0494	215	230	230	0	0	1	-360	360
	80	99	0.0454	0.206	0.0546	150	180	180	0	0	1	-360	360
	82	83	0.0112	0.03665	0.03796	215	230	230	0	0	1	-360	360
	82	96	0.0162	0.053	0.0544	215	230	230	0	0	1	-360	360
	83	85	0.0927	0.1961	0.03814	150	180	180	0	0	1	-360	360
	85	89	0.0239	0.173	0.047	75	90	90	0	0	1	-360	360
	89	90	0.0518	0.188	0.0528	150	180	180	0	0	1	-360	360
	89	90	0.0518	0.188	0.0528	150	180	180	0	0	1	-360	360
	89	92	0.0099	0.0505	0.0548	215	230	230	0	0	1	-360	360
	89	92	0.0099	0.0505	0.0548	215	230	230	0	0	1	-360	360
	90	91	0.0254	0.0836	0.0214	150	180	180	0	0	1	-360	360
	91	92	0.0387	0.1272	0.03268	150	180	180	0	0	1	-360	360
	92	94	0.0481	0.158	0.0406	150	180	180	0	0	1	-360	360
	92	100	0.0648	0.295	0.0472	150	180	180	0	0	1	-360	360
	92	102	0.0123	0.0559	0.01464	75	90	90	0	0	1	-360	360
	94	96	0.0269	0.0869	0.023	150	180	180	0	0	1	-360	360
	94	100	0.0178	0.058	0.0604	150	180	180	0	0	1	-360	360
	99	100	0.018	0.0813	0.0216	150	180	180	0	0	1	-360	360
	100	101	0.0277	0.1262	0.0328	150	180	180	0	0	1	-360	360
	100	103	0.016	0.0525	0.0536	215	230	230	0	0	1	-360	360
	100	104	0.0451	0.204	0.0541	150	180	180	0	0	1	-360	360
	100	106	0.0605	0.229	0.062	150	180	180	0	0	1	-360	360
	101	102	0.0246	0.112	0.0294	75	90	90	0	0	1	-360	360
	103	104	0.0466	0.1584	0.0407	150	180	180	0	0	1	-360	360
	103	105	0.0535	0.1625	0.0408	75	90	90	0	0	1	-360	360
	103	110	0.03906	0.1813	0.0461	215	230	230	0	0	1	-360	360
	104	105	0.00994	0.0378	0.00986	150	180	180	0	0	1	-360	360
	105	106	0.014	0.0547	0.01434	150	180	180	0	0	1	-360	360
	105	107	0.053	0.183	0.0472	150	180	180	0	0	1	-360	360
	105	108	0.0261	0.0703	0.01844	150	180	180	0	0	1	-360	360
	106	107	0.053	0.183	0.0472	150	180	180	0	0	1	-360	360
	108	109	0.0105	0.0288	0.0076	150	180	180	0	0	1	-360	360
	109	110	0.0278	0.0762	0.0202	75	90	90	0	0	1	-360	360
	110	111	0.022	0.0755	0.02	215	230	230	0	0	1	-360	360
	110	112	0.0247	0.064	0.062	150	180	180	0	0	1	-360	360
	114	115	0.0023	0.0104	0.00276	75	90	90	0	0	1	-360	360
	11	15	0.09665	0.3175	0.08144	150	180	180	0	0	1	-360	360
	12	15	0.081	0.2657	0.06836	75	90	90	0	0	1	-360	360
	12	17	0.0666	0.2635	0.068	75	90	90	0	0	1	-360	360
	15	37	0.0795	0.2664	0.06854	150	180	180	0	0	1	-360	360
	37	40	0.0505	0.1665	0.04252	75	90	90	0	0	1	-360	360
	40	42	0.0555	0.183	0.0466	75	90	90	0	0	1	-360	360
	46	49	0.078	0.2395	0.05978	75	90	90	0	0	1	-360	360
	51	56	0.0598	0.1685	0.04208	75	90	90	0	0	1	-360	360
	62	66	0.0482	0.218	0.0578	150	180	180	0	0	1	-360	360
	75	76	0.0309	0.1025	0.02554	75	90	90	0	0	1	-360	360
	80	100	0.0635	0.287	0.0762	150	180	180	0	0	1	-360	360
	80	96	0.0356	0.182	0.0494	215	230	230	0	0	1	-360	360
	83	85	0.0927	0.1961	0.03814	150	180	180	0	0	1	-360	360
	85	87	0.06328	0.3304	0.0721	75	90	90	0	0	1	-360	360
	85	89	0.0239	0.173	0.047	75	90	90	0	0	1	-360	360
	92	94	0.0481	0.158	0.0406	150	180	180	0	0	1	-360	360
	94	96	0.0269	0.0869	0.023	150	180	180	0	0	1	-360	360
	8	5	0	0.0267	0	800	900	900	0.985	0	1	-360	360
	30	17	0	0.0388	0	500	550	550	0.96	0	1	-360	360
	26	25	0	0.0382	0	500	550	550	0.96	0	1	-360	360
	38	37	0	0.0375	0	500	550	550	0.935	0	1	-360	360
	63	59	0	0.0386	0	500	550	550	0.96	0	1	-360	360
	64	61	0	0.0268	0	500	550	550	0.985	0	1	-360	360
	65	66	0	0.037	0	800	900	900	0.935	0	1	-360	360
	68	69	0	0.037	0	800	900	900	0.935	0	1	-360	360
	81	80	0	0.037	0	800	900	900	0.935	0	1	-360	360
	201	202	0.0303	0.0999	0.0254	75	90	90	0	0	1	-360	360
	201	203	0.0129	0.0424	0.01082	75	90	90	0	0	1	-360	360
	202	212	0.0187	0.0616	0.01572	150	180	180	0	0	1	-360	360
	203	205	0.0241	0.108	0.0284	150	180	180	0	0	1	-360	360
	203	212	0.0484	0.16	0.0406	75	90	90	0	0	1	-360	360
	204	205	0.00176	0.00798	0.0021	150	180	180	0	0	1	-360	360
	204	211	0.0209	0.0688	0.01748	150	180	180	0	0	1	-360	360
	205	206	0.0119	0.054	0.01426	150	180	180	0	0	1	-360	360
	205	211	0.0203	0.0682	0.01738	150	180	180	0	0	1	-360	360
	206	207	0.00459	0.0208	0.0055	150	180	180	0	0	1	-360	360
	207	212	0.00862	0.034	0.00874	150	180	180	0	0	1	-360	360
	208	209	0.00244	0.0305	1.162	1200	1500	1500	0	0	1	-360	360
	208	230	0.00431	0.0504	0.514	1200	1500	1500	0	0	1	-360	360
	209	210	0.00258	0.0322	1.23	1200	1500	1500	0	0	1	-360	360
	211	212	0.00595	0.0196	0.00502	150	180	180	0	0	1	-360	360
	215	217	0.0132	0.0437	0.0444	215	230	230	0	0	1	-360	360
	215	219	0.012	0.0394	0.0101	150	180	180	0	0	1	-360	360
	217	218	0.0123	0.0505	0.01298	150	180	180	0	0	1	-360	360
	217	231	0.0474	0.1563	0.0399	150	180	180	0	0	1	-360	360
	217	313	0.00913	0.0301	0.00768	150	180	180	0	0	1	-360	360
	218	219	0.01119	0.0493	0.01142	150	180	180	0	0	1	-360	360
	219	220	0.0252	0.117	0.0298	75	90	90	0	0	1	-360	360
	219	234	0.0752	0.247	0.0632	150	180	180	0	0	1	-360	360
	220	221	0.0183	0.0849	0.0216	150	180	180	0	0	1	-360	360
	221	222	0.0209	0.097	0.0246	150	180	180	0	0	1	-360	360
	222	223	0.0342	0.159	0.0404	150	180	180	0	0	1	-360	360
	223	224	0.0135	0.0492	0.0498	150	180	180	0	0	1	-360	360
	223	225	0.0156	0.08	0.0864	215	230	230	0	0	1	-360	360
	223	232	0.0317	0.1153	0.1173	150	180	180	0	0	1	-360	360
	224	270	0.0221	0.4115	0.10198	75	90	90	0	0	1	-360	360
	224	272	0.0488	0.196	0.0488	75	90	90	0	0	1	-360	360
	225	227	0.0318	0.163	0.1764	215	230	230	0	0	1	-360	360
...
];

